154
| terachem gradient in au, energy -6132.2571296070 , grad_rms 0.060172 , grad_max 0.333125 on atom 153
 P      -0.0768533111      -0.0280020421     -0.0804504889
 O       0.0290916893      -0.0233193782      0.0404911769
 O      -0.0243228471       0.0458927289     -0.0023489949
 O       0.0085801984      -0.0229274205      0.0250690725
 C       0.0118415512       0.0137845821      0.0180570171
 H       0.0059882818       0.0085025582      0.0042994517
 H      -0.0043818999      -0.0000841560     -0.0169569593
 C      -0.0351767676      -0.0093689579     -0.0586685529
 H      -0.0003316984       0.0100234762     -0.0015835227
 O       0.0609415176       0.0178349816      0.0627526891
 C      -0.0418557980      -0.0090484740     -0.0239268836
 H       0.0129361692       0.0095861872     -0.0013080285
 N      -0.0035874254      -0.0431559537     -0.0447808639
 C       0.0110385642       0.0659735761      0.0365042991
 H      -0.0114782200       0.0056100192      0.0045199567
 N       0.0095496189      -0.0841834772     -0.0007155626
 C      -0.0277065163      -0.0062173857     -0.0069888498
 C      -0.0053506408       0.0769447719      0.0057248038
 N       0.0240259555       0.0093692411     -0.0574945312
 H       0.0021870381      -0.0179895844     -0.0119528985
 H      -0.0046027185       0.0130713016      0.0144091020
 N      -0.0048792337      -0.0974371164      0.0652323291
 C      -0.0160298372      -0.0100739807     -0.0369570131
 H       0.0038158119      -0.0136941511     -0.0057798697
 N      -0.0006415401       0.0361080756      0.0254931069
 C       0.0236564105       0.0296344990      0.0342091554
 C       0.0200734026      -0.0060357431      0.0077729060
 H      -0.0174405166      -0.0055136458      0.0043415199
 C      -0.0076857983      -0.0144175993      0.0103441115
 H      -0.0099068933      -0.0106502384      0.0000460725
 O       0.0231332141       0.0257224919     -0.0172343735
 H      -0.0135636717       0.0092934169     -0.0133184065
 O       0.0026832769       0.0171493042      0.0177580997
 H      -0.0108927649      -0.0159339092     -0.0162488533
 N      -0.0407558525       0.1318832976     -0.0439964796
 C      -0.0210749607      -0.0829187698     -0.0039497259
 O      -0.0003005843      -0.0446681401      0.0118107562
 N       0.0575064907       0.0656526245      0.0390802691
 C       0.0249560955       0.0086179818     -0.0049860739
 O      -0.0086786616      -0.0032860466      0.0091314600
 C      -0.0207379235       0.0461977572      0.0031215129
 N       0.0169512047      -0.0588188219      0.0254428678
 C      -0.0026813502      -0.0047779064      0.0222125997
 C      -0.0350176428       0.0059614686     -0.0380785230
 C       0.0225242304       0.0238517012      0.0265954617
 C      -0.0027114905       0.0018118458      0.0003166628
 C       0.0084272015      -0.0214349793      0.0253845689
 C      -0.0105744396       0.0182732336     -0.0224437743
 C       0.0045647699      -0.0156884526     -0.0155767905
 C      -0.0017515207       0.0404832254     -0.0454238972
 N       0.0534877486      -0.0272040492      0.0594272876
 C      -0.0191174083      -0.0620537834     -0.0283904463
 C      -0.0431600095      -0.0077490201     -0.0226471283
 C      -0.0192281429       0.0204998603      0.0286675066
 O       0.0318376288      -0.0258611472     -0.0041908294
 H      -0.0125318410       0.0299213261      0.0048017505
 C      -0.0221205496      -0.0302690487      0.0095765411
 O       0.0421308230       0.0443937056     -0.0034886670
 H      -0.0008130061      -0.0145183834     -0.0092079996
 C       0.0725898197      -0.0171692242      0.0250911664
 O      -0.0700086539      -0.0079786947     -0.0140287440
 H       0.0261532371      -0.0022018367     -0.0057852303
 C      -0.0292005150      -0.0082131436     -0.0023683205
 O      -0.0161612845       0.0499062487      0.0680190977
 P       0.1034233482      -0.0371054763      0.0676298766
 O       0.0142774189       0.0120285001     -0.0607675193
 O      -0.0428870882       0.0268915953      0.0052945577
 O       0.0079657365      -0.0110150974     -0.0012068654
 H      -0.0108603753       0.0012714266      0.0062519947
 H      -0.0062452972      -0.0091362212     -0.0015926170
 H       0.0073891006      -0.0058640688     -0.0126338430
 H      -0.0093250959       0.0152120661      0.0029338172
 H       0.0017811755      -0.0120735188     -0.0053730319
 H      -0.0025039318      -0.0041180129      0.0180075787
 H       0.0086156478      -0.0054064999      0.0138585468
 H      -0.0011541710      -0.0075455982     -0.0066866071
 H       0.0030040654       0.0022832274      0.0123485740
 H       0.0160597094       0.0050394898     -0.0063463127
 H       0.0151185651      -0.0087383673     -0.0058777539
 H       0.0197794082      -0.0074713371     -0.0002443763
 H      -0.0200273354      -0.0106635998     -0.0031517878
 H      -0.0112534935       0.0045199044     -0.0028934806
 H       0.0096012306       0.0070158777     -0.0222260230
 H       0.0143853042      -0.0223885181     -0.0175869684
 H       0.0096639431       0.0010197232     -0.0108708661
 P       0.1380083076      -0.1899906712      0.0880573859
 O       0.0303248622      -0.0094141273      0.0519787535
 O       0.0281661206      -0.0105199685     -0.0185550885
 O      -0.0332522056       0.0156631308      0.0080947678
 C       0.0134742802      -0.0384556345      0.0047583552
 C      -0.0009137975       0.0243699358      0.0269140515
 O      -0.0049026833      -0.0242860310     -0.0108334465
 C      -0.0082003015      -0.0109120550     -0.0698593358
 O      -0.0148926952       0.0180302044     -0.0079465079
 C       0.0134087385      -0.0300906608     -0.0152715607
 C       0.0332383355       0.0126314986      0.0275494111
 N      -0.0357156172      -0.0335307850      0.0236914338
 C       0.0709511567       0.0542173372     -0.1075658658
 O      -0.0430183605      -0.0270899359      0.0058228425
 N      -0.0986162978       0.0108284035     -0.0607049716
 C       0.0330753338       0.0484414703      0.0268350843
 O       0.0547978038      -0.0852385991      0.0929193366
 C      -0.0304582681      -0.0076837433     -0.0086471448
 C      -0.0235160820       0.0020803432      0.0081746249
 C       0.0030190967      -0.0484106507     -0.0063435869
 C       0.0280511395       0.0377769998      0.0189667438
 C      -0.0823908809      -0.0472919046     -0.0015859934
 C      -0.0248079305       0.0440464039     -0.0383778727
 C       0.0403329933      -0.0175804542      0.0145525859
 C      -0.0310268292      -0.0235544361     -0.0869405797
 C      -0.0110999753       0.0112156315      0.0214378787
 C      -0.0186565835       0.0002896434      0.0073870694
 C      -0.0461023909       0.0030474395      0.0125277098
 C       0.0299870125      -0.0074645973     -0.0146514381
 C       0.0391029119       0.0371398782      0.0002427074
 N       0.0142897618       0.0202538368     -0.0193685559
 N       0.0067912891       0.0406589126     -0.0161784042
 O       0.0329025783       0.0217483848     -0.0238356983
 O      -0.0274379358      -0.0354144325      0.0534991711
 O      -0.0067100632       0.0471889664      0.0349317042
 O       0.0058249942      -0.0061891936     -0.0099795912
 O       0.0234389221       0.0032666831      0.0905885380
 O      -0.0135843284      -0.0390460513     -0.0118809849
 O      -0.0069613436      -0.0063220919     -0.0460526462
 P       0.0541239536       0.0382326718     -0.0039341200
 H      -0.0135002958       0.0029008940     -0.0087390934
 H       0.0277596294      -0.0031034214     -0.0032441863
 H       0.0019560039       0.0062437713      0.0132676506
 H       0.0114602527      -0.0059712744      0.0004338814
 H      -0.0024572550      -0.0089412320     -0.0087629285
 H      -0.0213548500      -0.0057832063     -0.0035237649
 H       0.0037485687       0.0158499744      0.0127335263
 H      -0.0096055926       0.0056500103      0.0121663165
 H       0.0165064510      -0.0045731201      0.0011615053
 H      -0.0059276598       0.0075153183      0.0082430924
 H      -0.0090760103      -0.0091942904     -0.0159442367
 H       0.0056410936      -0.0168221906     -0.0008148781
 H       0.0024889208      -0.0052514714     -0.0172513929
 H       0.0026913361       0.0157045687     -0.0018265443
 H      -0.0076488128       0.0072079197     -0.0064505684
 H       0.0039712368      -0.0085382866      0.0088983909
 H       0.0077461907       0.0002424877     -0.0083411856
 H      -0.0055773867       0.0029496897     -0.0076533599
 H      -0.0066208993      -0.0094990349     -0.0072971584
 H       0.0073062887      -0.0046668326     -0.0010205833
 H       0.0191593089      -0.0042838178     -0.0097375716
 H       0.0015560541       0.0092655690      0.0144397612
 H      -0.0200429404      -0.0074088092     -0.0028799891
 H      -0.0004175643      -0.0061287776      0.0109952568
 O       0.0164915551       0.0023390038      0.0032487869
 H       0.0137842261      -0.0010924444     -0.0056975966
 H      -0.0069323245       0.0207487082     -0.0046143766
 H      -0.2092733399       0.2161967436     -0.1429547516
 H      -0.0080881062      -0.0240049920      0.0443636871
